data/nesta/api/nesta_case29_edin__api.m
%%%%%%%%%%%%%%%%%%%%%%%%%%%%%%%%%%%%%%%%%%%%%%%%%%%%%%%%%%%%%%%%%%%%%%%%%%%
%%%%                                                                  %%%%%
%%%%      NICTA Energy System Test Case Archive (NESTA) - v0.1.5      %%%%%
%%%%            Optimal Power Flow - Active Power Increase            %%%%%
%%%%                       30 - October - 2014                        %%%%%
%%%%                                                                  %%%%%
%%%%%%%%%%%%%%%%%%%%%%%%%%%%%%%%%%%%%%%%%%%%%%%%%%%%%%%%%%%%%%%%%%%%%%%%%%%
function mpc = nesta_case29_edin__api
mpc.version = '2';
mpc.baseMVA = 100.0;

%% area data
%	area	refbus
mpc.areas = [
	1	 1;
];

%% bus data
%	bus_i	type	Pd	Qd	Gs	Bs	area	Vm	Va	baseKV	zone	Vmax	Vmin
mpc.bus = [
	1	 2	 2824.46	 102.00	 0.0	 0.0	 1	     1.0000	     0.0000	 275.0	 1	     1.1000	     0.9000;
	2	 2	 3096.05	 113.00	 0.0	 0.0	 1	     1.0000	     0.0000	 275.0	 1	     1.1000	     0.9000;
	3	 2	 3349.53	 105.00	 0.0	 0.0	 1	     1.0000	     0.0000	 132.0	 1	     1.1000	     0.9000;
	4	 2	 7894.02	 317.00	 0.0	 0.0	 1	     1.0000	     0.0000	 275.0	 1	     1.1000	     0.9000;
	5	 2	 3029.66	 128.00	 0.0	 0.0	 1	     1.0000	     0.0000	 400.0	 1	     1.1000	     0.9000;
	6	 2	 7097.37	 315.00	 0.0	 0.0	 1	     1.0000	     0.0000	 400.0	 1	     1.1000	     0.9000;
	7	 2	 4496.21	 171.00	 0.0	 0.0	 1	     1.0000	     0.0000	 400.0	 1	     1.1000	     0.9000;
	8	 1	 709.13	 37.40	 0.0	 0.0	 1	     1.0000	     0.0000	 400.0	 1	     1.1000	     0.9000;
	9	 1	 784.57	 53.00	 0.0	 0.0	 1	     1.0000	     0.0000	 400.0	 1	     1.1000	     0.9000;
	10	 2	 15456.10	 465.00	 0.0	 0.0	 1	     1.0000	     0.0000	 400.0	 1	     1.1000	     0.9000;
	11	 2	 20278.21	 760.00	 0.0	 0.0	 1	     1.0000	     0.0000	 400.0	 1	     1.1000	     0.9000;
	12	 2	 7175.83	 338.00	 0.0	 0.0	 1	     1.0000	     0.0000	 400.0	 1	     1.1000	     0.9000;
	13	 1	 15232.80	 766.00	 0.0	 0.0	 1	     1.0000	     0.0000	 400.0	 1	     1.1000	     0.9000;
	14	 1	 11050.42	 566.50	 0.0	 0.0	 1	     1.0000	     0.0000	 400.0	 1	     1.1000	     0.9000;
	15	 2	 15890.63	 694.60	 0.0	 0.0	 1	     1.0000	     0.0000	 400.0	 1	     1.1000	     0.9000;
	16	 2	 9698.54	 655.00	 0.0	 0.0	 1	     1.0000	     0.0000	 400.0	 1	     1.1000	     0.9000;
	17	 2	 6524.03	 371.00	 0.0	 0.0	 1	     1.0000	     0.0000	 400.0	 1	     1.1000	     0.9000;
	18	 2	 32360.64	 1935.00	 0.0	 0.0	 1	     1.0000	     0.0000	 400.0	 1	     1.1000	     0.9000;
	19	 2	 12185.03	 648.00	 0.0	 0.0	 1	     1.0000	     0.0000	 400.0	 1	     1.1000	     0.9000;
	20	 2	 6200.30	 305.80	 0.0	 0.0	 1	     1.0000	     0.0000	 400.0	 1	     1.1000	     0.9000;
	21	 2	 4236.70	 202.20	 0.0	 0.0	 1	     1.0000	     0.0000	 400.0	 1	     1.1000	     0.9000;
	22	 2	 10984.03	 665.00	 0.0	 0.0	 1	     1.0000	     0.0000	 400.0	 1	     1.1000	     0.9000;
	23	 2	 28570.55	 1337.00	 0.0	 0.0	 1	     1.0000	     0.0000	 400.0	 1	     1.1000	     0.9000;
	24	 1	 8557.89	 528.00	 0.0	 0.0	 1	     1.0000	     0.0000	 400.0	 1	     1.1000	     0.9000;
	25	 2	 58746.45	 2902.00	 0.0	 0.0	 1	     1.0000	     0.0000	 400.0	 1	     1.1000	     0.9000;
	26	 2	 8594.10	 434.00	 0.0	 0.0	 1	     1.0000	     0.0000	 400.0	 1	     1.1000	     0.9000;
	27	 3	 2758.08	 138.00	 0.0	 0.0	 1	     1.0000	     0.0000	 400.0	 1	     1.1000	     0.9000;
	28	 2	 16602.78	 841.00	 0.0	 0.0	 1	     1.0000	     0.0000	 400.0	 1	     1.1000	     0.9000;
	29	 2	 15552.66	 356.00	 0.0	 0.0	 1	     1.0000	     0.0000	 400.0	 1	     1.1000	     0.9000;
];

%% generator data
%	bus	Pg	Qg	Qmax	Qmin	Vg	mBase	status	Pmax	Pmin	Pc1	Pc2	Qc1min	Qc1max	Qc2min	Qc2max	ramp_agc	ramp_10	ramp_30	ramp_q	apf
mpc.gen = [
	1	 725.0	 14.0	 410.0	 -410.0	 1.0	 100.0	 1	 819	 0.0	 0.0	 0.0	 0.0	 0.0	 0.0	 0.0	 0.0	 0.0	 0.0	 0.0	 0.0; % NG
	1	 725.0	 14.0	 363.0	 -363.0	 1.0	 100.0	 1	 726	 0.0	 0.0	 0.0	 0.0	 0.0	 0.0	 0.0	 0.0	 0.0	 0.0	 0.0	 0.0; % COW
	1	 725.0	 14.0	 410.0	 -410.0	 1.0	 100.0	 1	 819	 0.0	 0.0	 0.0	 0.0	 0.0	 0.0	 0.0	 0.0	 0.0	 0.0	 0.0	 0.0; % NG
	1	 725.0	 14.0	 421.0	 -421.0	 1.0	 100.0	 1	 841	 0.0	 0.0	 0.0	 0.0	 0.0	 0.0	 0.0	 0.0	 0.0	 0.0	 0.0	 0.0; % PEL
	2	 1039.0	 16.0	 587.0	 -587.0	 1.0	 100.0	 1	 1173	 0.0	 0.0	 0.0	 0.0	 0.0	 0.0	 0.0	 0.0	 0.0	 0.0	 0.0	 0.0; % NG
	2	 1039.0	 16.0	 1108.51	 -665.0	 1.0	 100.0	 1	 1329	 0.0	 0.0	 0.0	 0.0	 0.0	 0.0	 0.0	 0.0	 0.0	 0.0	 0.0	 0.0; % NUC
	2	 1039.0	 16.0	 530.0	 -530.0	 1.0	 100.0	 1	 1059	 0.0	 0.0	 0.0	 0.0	 0.0	 0.0	 0.0	 0.0	 0.0	 0.0	 0.0	 0.0; % COW
	3	 854.0	 24.0	 482.0	 -482.0	 1.0	 100.0	 1	 964	 0.0	 0.0	 0.0	 0.0	 0.0	 0.0	 0.0	 0.0	 0.0	 0.0	 0.0	 0.0; % NG
	3	 854.0	 24.0	 496.0	 -496.0	 1.0	 100.0	 1	 991	 0.0	 0.0	 0.0	 0.0	 0.0	 0.0	 0.0	 0.0	 0.0	 0.0	 0.0	 0.0; % PEL
	3	 854.0	 24.0	 618.0	 -618.0	 1.0	 100.0	 1	 1235	 0.0	 0.0	 0.0	 0.0	 0.0	 0.0	 0.0	 0.0	 0.0	 0.0	 0.0	 0.0; % COW
	3	 854.0	 24.0	 482.0	 -482.0	 1.0	 100.0	 1	 964	 0.0	 0.0	 0.0	 0.0	 0.0	 0.0	 0.0	 0.0	 0.0	 0.0	 0.0	 0.0; % NG
	4	 1929.0	 41.0	 1090.0	 -1090.0	 1.0	 100.0	 1	 2179	 0.0	 0.0	 0.0	 0.0	 0.0	 0.0	 0.0	 0.0	 0.0	 0.0	 0.0	 0.0; % NG
	4	 1929.0	 41.0	 1020.0	 -1020.0	 1.0	 100.0	 1	 2040	 0.0	 0.0	 0.0	 0.0	 0.0	 0.0	 0.0	 0.0	 0.0	 0.0	 0.0	 0.0; % NUC
	4	 1929.0	 41.0	 1090.0	 -1090.0	 1.0	 100.0	 1	 2179	 0.0	 0.0	 0.0	 0.0	 0.0	 0.0	 0.0	 0.0	 0.0	 0.0	 0.0	 0.0; % NG
	4	 1929.0	 41.0	 1090.0	 -1090.0	 1.0	 100.0	 1	 2179	 0.0	 0.0	 0.0	 0.0	 0.0	 0.0	 0.0	 0.0	 0.0	 0.0	 0.0	 0.0; % NG
	5	 1628.0	 6.0	 920.0	 -920.0	 1.0	 100.0	 1	 1839	 0.0	 0.0	 0.0	 0.0	 0.0	 0.0	 0.0	 0.0	 0.0	 0.0	 0.0	 0.0; % NG
	5	 1628.0	 6.0	 920.0	 -920.0	 1.0	 100.0	 1	 1839	 0.0	 0.0	 0.0	 0.0	 0.0	 0.0	 0.0	 0.0	 0.0	 0.0	 0.0	 0.0; % NG
	6	 2486.0	 -110.0	 1315.0	 -1315.0	 1.0	 100.0	 1	 2630	 0.0	 0.0	 0.0	 0.0	 0.0	 0.0	 0.0	 0.0	 0.0	 0.0	 0.0	 0.0; % NUC
	6	 2486.0	 -110.0	 1348.0	 -1348.0	 1.0	 100.0	 1	 2696	 0.0	 0.0	 0.0	 0.0	 0.0	 0.0	 0.0	 0.0	 0.0	 0.0	 0.0	 0.0; % COW
	6	 2486.0	 -110.0	 1404.0	 -1404.0	 1.0	 100.0	 1	 2808	 0.0	 0.0	 0.0	 0.0	 0.0	 0.0	 0.0	 0.0	 0.0	 0.0	 0.0	 0.0; % NG
	7	 1776.0	 -101.0	 1003.0	 -1003.0	 1.0	 100.0	 1	 2006	 0.0	 0.0	 0.0	 0.0	 0.0	 0.0	 0.0	 0.0	 0.0	 0.0	 0.0	 0.0; % NG
	7	 1776.0	 -101.0	 963.0	 -963.0	 1.0	 100.0	 1	 1926	 0.0	 0.0	 0.0	 0.0	 0.0	 0.0	 0.0	 0.0	 0.0	 0.0	 0.0	 0.0; % COW
	7	 1776.0	 -101.0	 1031.0	 -1031.0	 1.0	 100.0	 1	 2062	 0.0	 0.0	 0.0	 0.0	 0.0	 0.0	 0.0	 0.0	 0.0	 0.0	 0.0	 0.0; % PEL
	10	 5286.0	 -614.0	 2867.0	 -2867.0	 1.0	 100.0	 1	 5734	 0.0	 0.0	 0.0	 0.0	 0.0	 0.0	 0.0	 0.0	 0.0	 0.0	 0.0	 0.0; % COW
	10	 5286.0	 -614.0	 2986.0	 -2986.0	 1.0	 100.0	 1	 5971	 0.0	 0.0	 0.0	 0.0	 0.0	 0.0	 0.0	 0.0	 0.0	 0.0	 0.0	 0.0; % NG
	10	 5286.0	 -614.0	 2867.0	 -2867.0	 1.0	 100.0	 1	 5734	 0.0	 0.0	 0.0	 0.0	 0.0	 0.0	 0.0	 0.0	 0.0	 0.0	 0.0	 0.0; % COW
	11	 3975.0	 448.0	 2245.0	 -2245.0	 1.0	 100.0	 1	 4490	 0.0	 0.0	 0.0	 0.0	 0.0	 0.0	 0.0	 0.0	 0.0	 0.0	 0.0	 0.0; % NG
	11	 3975.0	 448.0	 2156.0	 -2156.0	 1.0	 100.0	 1	 4312	 0.0	 0.0	 0.0	 0.0	 0.0	 0.0	 0.0	 0.0	 0.0	 0.0	 0.0	 0.0; % COW
	11	 3975.0	 448.0	 2103.0	 -2103.0	 1.0	 100.0	 1	 4205	 0.0	 0.0	 0.0	 0.0	 0.0	 0.0	 0.0	 0.0	 0.0	 0.0	 0.0	 0.0; % NUC
	11	 3975.0	 448.0	 2156.0	 -2156.0	 1.0	 100.0	 1	 4312	 0.0	 0.0	 0.0	 0.0	 0.0	 0.0	 0.0	 0.0	 0.0	 0.0	 0.0	 0.0; % COW
	11	 3975.0	 448.0	 2156.0	 -2156.0	 1.0	 100.0	 1	 4312	 0.0	 0.0	 0.0	 0.0	 0.0	 0.0	 0.0	 0.0	 0.0	 0.0	 0.0	 0.0; % COW
	12	 5058.0	 414.0	 2743.0	 -2743.0	 1.0	 100.0	 1	 5486	 0.0	 0.0	 0.0	 0.0	 0.0	 0.0	 0.0	 0.0	 0.0	 0.0	 0.0	 0.0; % COW
	12	 5058.0	 414.0	 2676.0	 -2676.0	 1.0	 100.0	 1	 5351	 0.0	 0.0	 0.0	 0.0	 0.0	 0.0	 0.0	 0.0	 0.0	 0.0	 0.0	 0.0; % NUC
	12	 5058.0	 414.0	 2857.0	 -2857.0	 1.0	 100.0	 1	 5714	 0.0	 0.0	 0.0	 0.0	 0.0	 0.0	 0.0	 0.0	 0.0	 0.0	 0.0	 0.0; % NG
	12	 5058.0	 414.0	 2743.0	 -2743.0	 1.0	 100.0	 1	 5486	 0.0	 0.0	 0.0	 0.0	 0.0	 0.0	 0.0	 0.0	 0.0	 0.0	 0.0	 0.0; % COW
	15	 26083.0	 3739.0	 14147.0	 -14147.0	 1.0	 100.0	 1	 28294	 0.0	 0.0	 0.0	 0.0	 0.0	 0.0	 0.0	 0.0	 0.0	 0.0	 0.0	 0.0; % COW
	16	 3278.0	 1380.0	 1778.0	 -1778.0	 1.0	 100.0	 1	 3555	 0.0	 0.0	 0.0	 0.0	 0.0	 0.0	 0.0	 0.0	 0.0	 0.0	 0.0	 0.0; % COW
	16	 3278.0	 1380.0	 3653.23	 -3354.58	 1.0	 100.0	 1	 3555	 0.0	 0.0	 0.0	 0.0	 0.0	 0.0	 0.0	 0.0	 0.0	 0.0	 0.0	 0.0; % COW
	16	 3278.0	 1380.0	 1778.0	 -1778.0	 1.0	 100.0	 1	 3555	 0.0	 0.0	 0.0	 0.0	 0.0	 0.0	 0.0	 0.0	 0.0	 0.0	 0.0	 0.0; % COW
	17	 7046.0	 -1126.0	 3822.0	 -3822.0	 1.0	 100.0	 1	 7643	 0.0	 0.0	 0.0	 0.0	 0.0	 0.0	 0.0	 0.0	 0.0	 0.0	 0.0	 0.0; % COW
	18	 17861.0	 3289.0	 9688.0	 -9688.0	 1.0	 100.0	 1	 19375	 0.0	 0.0	 0.0	 0.0	 0.0	 0.0	 0.0	 0.0	 0.0	 0.0	 0.0	 0.0; % COW
	18	 17861.0	 3289.0	 10089.0	 -10089.0	 1.0	 100.0	 1	 20177	 0.0	 0.0	 0.0	 0.0	 0.0	 0.0	 0.0	 0.0	 0.0	 0.0	 0.0	 0.0; % NG
	19	 5845.0	 -227.0	 3170.0	 -3170.0	 1.0	 100.0	 1	 6340	 0.0	 0.0	 0.0	 0.0	 0.0	 0.0	 0.0	 0.0	 0.0	 0.0	 0.0	 0.0; % COW
	19	 5845.0	 -227.0	 3170.0	 -3170.0	 1.0	 100.0	 1	 6340	 0.0	 0.0	 0.0	 0.0	 0.0	 0.0	 0.0	 0.0	 0.0	 0.0	 0.0	 0.0; % COW
	20	 3366.0	 -241.0	 1901.0	 -1901.0	 1.0	 100.0	 1	 3802	 0.0	 0.0	 0.0	 0.0	 0.0	 0.0	 0.0	 0.0	 0.0	 0.0	 0.0	 0.0; % NG
	20	 3366.0	 -241.0	 1826.0	 -1826.0	 1.0	 100.0	 1	 3651	 0.0	 0.0	 0.0	 0.0	 0.0	 0.0	 0.0	 0.0	 0.0	 0.0	 0.0	 0.0; % COW
	21	 4298.0	 -125.0	 2331.0	 -2331.0	 1.0	 100.0	 1	 4662	 0.0	 0.0	 0.0	 0.0	 0.0	 0.0	 0.0	 0.0	 0.0	 0.0	 0.0	 0.0; % COW
	22	 10484.0	 -1035.0	 5922.0	 -5922.0	 1.0	 100.0	 1	 11843	 0.0	 0.0	 0.0	 0.0	 0.0	 0.0	 0.0	 0.0	 0.0	 0.0	 0.0	 0.0; % NG
	23	 6396.0	 76.0	 3469.0	 -3469.0	 1.0	 100.0	 1	 6938	 0.0	 0.0	 0.0	 0.0	 0.0	 0.0	 0.0	 0.0	 0.0	 0.0	 0.0	 0.0; % COW
	23	 6396.0	 76.0	 3613.0	 -3613.0	 1.0	 100.0	 1	 7225	 0.0	 0.0	 0.0	 0.0	 0.0	 0.0	 0.0	 0.0	 0.0	 0.0	 0.0	 0.0; % NG
	23	 6396.0	 76.0	 3613.0	 -3613.0	 1.0	 100.0	 1	 7225	 0.0	 0.0	 0.0	 0.0	 0.0	 0.0	 0.0	 0.0	 0.0	 0.0	 0.0	 0.0; % NG
	23	 6396.0	 76.0	 3469.0	 -3469.0	 1.0	 100.0	 1	 6938	 0.0	 0.0	 0.0	 0.0	 0.0	 0.0	 0.0	 0.0	 0.0	 0.0	 0.0	 0.0; % COW
	23	 6396.0	 76.0	 3613.0	 -3613.0	 1.0	 100.0	 1	 7225	 0.0	 0.0	 0.0	 0.0	 0.0	 0.0	 0.0	 0.0	 0.0	 0.0	 0.0	 0.0; % NG
	25	 29232.0	 1472.0	 15855.0	 -15855.0	 1.0	 100.0	 1	 31710	 0.0	 0.0	 0.0	 0.0	 0.0	 0.0	 0.0	 0.0	 0.0	 0.0	 0.0	 0.0; % COW
	25	 29232.0	 1472.0	 16512.0	 -16512.0	 1.0	 100.0	 1	 33023	 0.0	 0.0	 0.0	 0.0	 0.0	 0.0	 0.0	 0.0	 0.0	 0.0	 0.0	 0.0; % NG
	26	 2510.0	 -19.0	 1418.0	 -1418.0	 1.0	 100.0	 1	 2835	 0.0	 0.0	 0.0	 0.0	 0.0	 0.0	 0.0	 0.0	 0.0	 0.0	 0.0	 0.0; % NG
	26	 2510.0	 -19.0	 1361.0	 -1361.0	 1.0	 100.0	 1	 2722	 0.0	 0.0	 0.0	 0.0	 0.0	 0.0	 0.0	 0.0	 0.0	 0.0	 0.0	 0.0; % COW
	26	 2510.0	 -19.0	 1574.0	 -1574.0	 1.0	 100.0	 1	 3148	 0.0	 0.0	 0.0	 0.0	 0.0	 0.0	 0.0	 0.0	 0.0	 0.0	 0.0	 0.0; % COW
	26	 2510.0	 -19.0	 1361.0	 -1361.0	 1.0	 100.0	 1	 2722	 0.0	 0.0	 0.0	 0.0	 0.0	 0.0	 0.0	 0.0	 0.0	 0.0	 0.0	 0.0; % COW
	27	 2162.0	 -146.0	 1173.0	 -1173.0	 1.0	 100.0	 1	 2345	 0.0	 0.0	 0.0	 0.0	 0.0	 0.0	 0.0	 0.0	 0.0	 0.0	 0.0	 0.0; % COW
	27	 2162.0	 -146.0	 1221.0	 -1221.0	 1.0	 100.0	 1	 2442	 0.0	 0.0	 0.0	 0.0	 0.0	 0.0	 0.0	 0.0	 0.0	 0.0	 0.0	 0.0; % NG
	28	 9456.0	 640.0	 5129.0	 -5129.0	 1.0	 100.0	 1	 10257	 0.0	 0.0	 0.0	 0.0	 0.0	 0.0	 0.0	 0.0	 0.0	 0.0	 0.0	 0.0; % COW
	28	 9456.0	 640.0	 5341.0	 -5341.0	 1.0	 100.0	 1	 10682	 0.0	 0.0	 0.0	 0.0	 0.0	 0.0	 0.0	 0.0	 0.0	 0.0	 0.0	 0.0; % NG
	29	 5247.0	 -47.0	 2846.0	 -2846.0	 1.0	 100.0	 1	 5691	 0.0	 0.0	 0.0	 0.0	 0.0	 0.0	 0.0	 0.0	 0.0	 0.0	 0.0	 0.0; % COW
	29	 5247.0	 -47.0	 2846.0	 -2846.0	 1.0	 100.0	 1	 5691	 0.0	 0.0	 0.0	 0.0	 0.0	 0.0	 0.0	 0.0	 0.0	 0.0	 0.0	 0.0; % COW
	29	 5247.0	 -47.0	 2846.0	 -2846.0	 1.0	 100.0	 1	 5691	 0.0	 0.0	 0.0	 0.0	 0.0	 0.0	 0.0	 0.0	 0.0	 0.0	 0.0	 0.0; % COW
];

%% generator cost data
%	2	startup	shutdown	n	c(n-1)	...	c0
mpc.gencost = [
	2	 1500.0	 0.0	 3	   0.000000	   0.790118	   0.000000; % NG
	2	 1500.0	 0.0	 3	   0.000000	   0.729222	   0.000000; % COW
	2	 1500.0	 0.0	 3	   0.000000	   0.908776	   0.000000; % NG
	2	 1500.0	 0.0	 3	   0.000000	   7.559767	   0.000000; % PEL
	2	 1500.0	 0.0	 3	   0.000000	   0.819741	   0.000000; % NG
	2	 1500.0	 0.0	 3	   0.000000	   0.197330	   0.000000; % NUC
	2	 1500.0	 0.0	 3	   0.000000	   0.808934	   0.000000; % COW
	2	 1500.0	 0.0	 3	   0.000000	   1.344955	   0.000000; % NG
	2	 1500.0	 0.0	 3	   0.000000	   6.778965	   0.000000; % PEL
	2	 1500.0	 0.0	 3	   0.000000	   0.507239	   0.000000; % COW
	2	 1500.0	 0.0	 3	   0.000000	   1.271223	   0.000000; % NG
	2	 1500.0	 0.0	 3	   0.000000	   1.136671	   0.000000; % NG
	2	 1500.0	 0.0	 3	   0.000000	   0.190608	   0.000000; % NUC
	2	 1500.0	 0.0	 3	   0.000000	   1.168690	   0.000000; % NG
	2	 1500.0	 0.0	 3	   0.000000	   1.077668	   0.000000; % NG
	2	 1500.0	 0.0	 3	   0.000000	   0.739243	   0.000000; % NG
	2	 1500.0	 0.0	 3	   0.000000	   0.872250	   0.000000; % NG
	2	 1500.0	 0.0	 3	   0.000000	   0.236058	   0.000000; % NUC
	2	 1500.0	 0.0	 3	   0.000000	   0.823445	   0.000000; % COW
	2	 1500.0	 0.0	 3	   0.000000	   1.377849	   0.000000; % NG
	2	 1500.0	 0.0	 3	   0.000000	   0.994483	   0.000000; % NG
	2	 1500.0	 0.0	 3	   0.000000	   1.038944	   0.000000; % COW
	2	 1500.0	 0.0	 3	   0.000000	   7.159366	   0.000000; % PEL
	2	 1500.0	 0.0	 3	   0.000000	   1.101686	   0.000000; % COW
	2	 1500.0	 0.0	 3	   0.000000	   1.068099	   0.000000; % NG
	2	 1500.0	 0.0	 3	   0.000000	   1.453491	   0.000000; % COW
	2	 1500.0	 0.0	 3	   0.000000	   1.294491	   0.000000; % NG
	2	 1500.0	 0.0	 3	   0.000000	   1.086836	   0.000000; % COW
	2	 1500.0	 0.0	 3	   0.000000	   0.164634	   0.000000; % NUC
	2	 1500.0	 0.0	 3	   0.000000	   0.939701	   0.000000; % COW
	2	 1500.0	 0.0	 3	   0.000000	   0.749410	   0.000000; % COW
	2	 1500.0	 0.0	 3	   0.000000	   0.996643	   0.000000; % COW
	2	 1500.0	 0.0	 3	   0.000000	   0.199950	   0.000000; % NUC
	2	 1500.0	 0.0	 3	   0.000000	   0.920202	   0.000000; % NG
	2	 1500.0	 0.0	 3	   0.000000	   1.037666	   0.000000; % COW
	2	 1500.0	 0.0	 3	   0.000000	   0.714557	   0.000000; % COW
	2	 1500.0	 0.0	 3	   0.000000	   0.579203	   0.000000; % COW
	2	 1500.0	 0.0	 3	   0.000000	   1.184097	   0.000000; % COW
	2	 1500.0	 0.0	 3	   0.000000	   0.380435	   0.000000; % COW
	2	 1500.0	 0.0	 3	   0.000000	   1.319381	   0.000000; % COW
	2	 1500.0	 0.0	 3	   0.000000	   1.248042	   0.000000; % COW
	2	 1500.0	 0.0	 3	   0.000000	   1.183125	   0.000000; % NG
	2	 1500.0	 0.0	 3	   0.000000	   0.935899	   0.000000; % COW
	2	 1500.0	 0.0	 3	   0.000000	   0.830398	   0.000000; % COW
	2	 1500.0	 0.0	 3	   0.000000	   1.108820	   0.000000; % NG
	2	 1500.0	 0.0	 3	   0.000000	   0.255347	   0.000000; % COW
	2	 1500.0	 0.0	 3	   0.000000	   0.837952	   0.000000; % COW
	2	 1500.0	 0.0	 3	   0.000000	   1.210362	   0.000000; % NG
	2	 1500.0	 0.0	 3	   0.000000	   0.524756	   0.000000; % COW
	2	 1500.0	 0.0	 3	   0.000000	   0.764146	   0.000000; % NG
	2	 1500.0	 0.0	 3	   0.000000	   0.712973	   0.000000; % NG
	2	 1500.0	 0.0	 3	   0.000000	   0.511418	   0.000000; % COW
	2	 1500.0	 0.0	 3	   0.000000	   0.914719	   0.000000; % NG
	2	 1500.0	 0.0	 3	   0.000000	   0.663254	   0.000000; % COW
	2	 1500.0	 0.0	 3	   0.000000	   1.051398	   0.000000; % NG
	2	 1500.0	 0.0	 3	   0.000000	   1.134023	   0.000000; % NG
	2	 1500.0	 0.0	 3	   0.000000	   1.273915	   0.000000; % COW
	2	 1500.0	 0.0	 3	   0.000000	   0.833992	   0.000000; % COW
	2	 1500.0	 0.0	 3	   0.000000	   0.538577	   0.000000; % COW
	2	 1500.0	 0.0	 3	   0.000000	   0.858706	   0.000000; % COW
	2	 1500.0	 0.0	 3	   0.000000	   1.101242	   0.000000; % NG
	2	 1500.0	 0.0	 3	   0.000000	   0.573781	   0.000000; % COW
	2	 1500.0	 0.0	 3	   0.000000	   1.302523	   0.000000; % NG
	2	 1500.0	 0.0	 3	   0.000000	   0.468286	   0.000000; % COW
	2	 1500.0	 0.0	 3	   0.000000	   1.152271	   0.000000; % COW
	2	 1500.0	 0.0	 3	   0.000000	   0.954167	   0.000000; % COW
];

%% branch data
%	fbus	tbus	r	x	b	rateA	rateB	rateC	ratio	angle	status	angmin	angmax
mpc.branch = [
	1	 2	 0.0122	 0.02	 0.0856	 525.0	 525.0	 525.0	 0.0	 0.0	 1	 -30.0	 30.0;
	1	 3	 0.007	 0.15	 0.052	 132.0	 132.0	 132.0	 1.0	 2.0	 1	 -30.0	 30.0;
	1	 2	 0.0122	 0.02	 0.2844	 525.0	 525.0	 525.0	 0.0	 0.0	 1	 -30.0	 30.0;
	1	 3	 0.007	 0.15	 0.052	 132.0	 132.0	 132.0	 1.0	 2.0	 1	 -30.0	 30.0;
	2	 4	 0.0004	 0.065	 0.4454	 485.0	 485.0	 485.0	 0.0	 0.0	 1	 -30.0	 30.0;
	2	 4	 0.0004	 0.065	 0.5545	 485.0	 485.0	 485.0	 0.0	 0.0	 1	 -30.0	 30.0;
	4	 7	 0.00211	 0.0135	 0.1174	 1090.0	 1090.0	 1090.0	 0.0	 0.0	 1	 -30.0	 30.0;
	4	 6	 0.0013	 0.023	 0.1496	 1371.0	 1371.0	 1371.0	 0.0	 0.0	 1	 -30.0	 30.0;
	4	 6	 0.0013	 0.023	 0.1758	 1120.0	 1120.0	 1120.0	 0.0	 0.0	 1	 -30.0	 30.0;
	4	 5	 0.001	 0.024	 0.125	 1000.0	 1000.0	 1000.0	 0.0	 0.0	 1	 -30.0	 30.0;
	4	 5	 0.001	 0.024	 0.125	 1000.0	 1000.0	 1000.0	 0.0	 0.0	 1	 -30.0	 30.0;
	4	 7	 0.0021	 0.0135	 0.1538	 1090.0	 1090.0	 1090.0	 0.0	 0.0	 1	 -30.0	 30.0;
	5	 6	 0.00085	 0.01051	 0.38254	 1390.0	 1390.0	 1390.0	 0.0	 0.0	 1	 -30.0	 30.0;
	5	 6	 0.00151	 0.01613	 0.59296	 1390.0	 1390.0	 1390.0	 0.0	 0.0	 1	 -30.0	 30.0;
	6	 9	 0.00078	 0.00852	 0.0737	 2100.0	 2100.0	 2100.0	 0.0	 0.0	 1	 -30.0	 30.0;
	6	 9	 0.00078	 0.00852	 0.4635	 2100.0	 2100.0	 2100.0	 0.0	 0.0	 1	 -30.0	 30.0;
	7	 8	 0.0004	 0.0001	 0.728	 2180.0	 2180.0	 2180.0	 0.0	 0.0	 1	 -30.0	 30.0;
	7	 8	 0.0004	 0.0001	 1.2872	 2500.0	 2500.0	 2500.0	 0.0	 0.0	 1	 -30.0	 30.0;
	7	 6	 0.003	 0.2	 0.2939	 157.0	 157.0	 157.0	 0.0	 0.0	 1	 -30.0	 30.0;
	7	 6	 0.003	 0.2	 0.2939	 157.0	 157.0	 157.0	 0.0	 0.0	 1	 -30.0	 30.0;
	8	 10	 0.00083	 0.0175	 0.6624	 1802.0	 1802.0	 1802.0	 0.0	 0.0	 1	 -30.0	 30.0;
	8	 10	 0.00083	 0.0175	 0.6624	 1802.0	 1802.0	 1802.0	 0.0	 0.0	 1	 -30.0	 30.0;
	9	 11	 0.00164	 0.0163	 0.4868	 1390.0	 1390.0	 1390.0	 0.0	 0.0	 1	 -30.0	 30.0;
	9	 11	 0.00164	 0.0163	 0.4868	 1390.0	 1390.0	 1390.0	 0.0	 0.0	 1	 -30.0	 30.0;
	9	 10	 0.00352	 0.02453	 0.1898	 855.0	 855.0	 855.0	 0.0	 0.0	 1	 -30.0	 30.0;
	9	 10	 0.00492	 0.0343	 0.2502	 775.0	 775.0	 775.0	 0.0	 0.0	 1	 -30.0	 30.0;
	10	 15	 0.00053	 0.00835	 5.373	 3775.0	 3775.0	 3775.0	 0.0	 0.0	 1	 -30.0	 30.0;
	10	 15	 0.00052	 0.0063	 1.0636	 4020.0	 4020.0	 4020.0	 0.0	 0.0	 1	 -30.0	 30.0;
	11	 15	 0.0007	 0.042	 0.3907	 751.0	 751.0	 751.0	 0.0	 0.0	 1	 -30.0	 30.0;
	11	 15	 0.00099	 0.042	 0.5738	 751.0	 751.0	 751.0	 0.0	 0.0	 1	 -30.0	 30.0;
	11	 13	 0.0004	 0.0052	 0.2498	 2170.0	 2170.0	 2170.0	 0.0	 0.0	 1	 -30.0	 30.0;
	11	 13	 0.0004	 0.0052	 0.2664	 2210.0	 2210.0	 2210.0	 0.0	 0.0	 1	 -30.0	 30.0;
	11	 12	 0.0001	 0.0085	 0.0798	 3320.0	 3320.0	 3320.0	 0.0	 0.0	 1	 -30.0	 30.0;
	11	 12	 0.0001	 0.0085	 0.0798	 3320.0	 3320.0	 3320.0	 0.0	 0.0	 1	 -30.0	 30.0;
	12	 13	 0.00096	 0.01078	 0.385	 2918.0	 2918.0	 2918.0	 0.0	 0.0	 1	 -30.0	 30.0;
	12	 18	 0.00074	 0.009	 0.2911	 2400.0	 2400.0	 2400.0	 1.0	 2.0	 1	 -30.0	 30.0;
	12	 18	 0.00097	 0.009	 0.3835	 2400.0	 2400.0	 2400.0	 0.0	 0.0	 1	 -30.0	 30.0;
	12	 13	 0.00096	 0.01078	 0.385	 2918.0	 2918.0	 2918.0	 1.0	 2.0	 1	 -30.0	 30.0;
	13	 18	 0.00049	 0.007	 0.1943	 2400.0	 2400.0	 2400.0	 0.0	 0.0	 1	 -30.0	 30.0;
	13	 18	 0.00084	 0.007	 0.7759	 2400.0	 2400.0	 2400.0	 0.0	 0.0	 1	 -30.0	 30.0;
	13	 15	 0.00137	 0.023	 0.6643	 1240.0	 1240.0	 1240.0	 0.0	 0.0	 1	 -30.0	 30.0;
	13	 15	 0.00164	 0.023	 0.1104	 955.0	 955.0	 955.0	 0.0	 0.0	 1	 -30.0	 30.0;
	13	 14	 0.00107	 0.01163	 1.1745	 1040.0	 1040.0	 1040.0	 0.0	 0.0	 1	 -30.0	 30.0;
	13	 14	 0.00082	 0.01201	 1.2125	 1040.0	 1040.0	 1040.0	 0.0	 0.0	 1	 -30.0	 30.0;
	14	 16	 0.0005	 0.016	 0.2795	 1973.0	 1973.0	 1973.0	 0.0	 0.0	 1	 -30.0	 30.0;
	14	 16	 0.005	 0.018	 0.1466	 625.0	 625.0	 625.0	 0.0	 0.0	 1	 -30.0	 30.0;
	15	 16	 0.00033	 0.0052	 0.3534	 2770.0	 2770.0	 2770.0	 0.0	 0.0	 1	 -30.0	 30.0;
	15	 16	 0.00016	 0.00172	 0.3992	 5540.0	 5540.0	 5540.0	 0.0	 0.0	 1	 -30.0	 30.0;
	15	 14	 0.00019	 0.00222	 0.7592	 5000.0	 5000.0	 5000.0	 0.0	 0.0	 1	 -30.0	 30.0;
	15	 14	 0.00018	 0.00222	 0.5573	 5000.0	 5000.0	 5000.0	 0.0	 0.0	 1	 -30.0	 30.0;
	16	 19	 0.00056	 0.0141	 0.4496	 2238.0	 2238.0	 2238.0	 0.0	 0.0	 1	 -30.0	 30.0;
	16	 19	 0.00056	 0.0141	 0.4496	 2238.0	 2238.0	 2238.0	 0.0	 0.0	 1	 -30.0	 30.0;
	17	 16	 0.001	 0.01072	 0.2651	 2150.0	 2150.0	 2150.0	 0.0	 0.0	 1	 -30.0	 30.0;
	17	 16	 0.001	 0.01072	 0.4573	 1890.0	 1890.0	 1890.0	 0.0	 0.0	 1	 -30.0	 30.0;
	17	 22	 0.00068	 0.0097	 0.4566	 2100.0	 2100.0	 2100.0	 0.0	 0.0	 1	 -30.0	 30.0;
	17	 22	 0.00069	 0.0097	 0.4574	 2100.0	 2100.0	 2100.0	 0.0	 0.0	 1	 -30.0	 30.0;
	18	 17	 0.00042	 0.0018	 0.2349	 3100.0	 3100.0	 3100.0	 0.0	 0.0	 1	 -30.0	 30.0;
	18	 17	 0.00042	 0.0018	 0.2349	 3460.0	 3460.0	 3460.0	 0.0	 0.0	 1	 -30.0	 30.0;
	18	 23	 0.00138	 0.0096	 0.4829	 1970.0	 1970.0	 1970.0	 0.0	 0.0	 1	 -30.0	 30.0;
	18	 23	 0.00117	 0.0096	 0.4122	 1970.0	 1970.0	 1970.0	 0.0	 0.0	 1	 -30.0	 30.0;
	20	 26	 0.00035	 0.0023	 0.2249	 2780.0	 2780.0	 2780.0	 0.0	 0.0	 1	 -30.0	 30.0;
	20	 26	 0.00035	 0.0023	 0.2249	 2780.0	 2780.0	 2780.0	 0.0	 0.0	 1	 -30.0	 30.0;
	20	 19	 0.00178	 0.0213	 0.6682	 1477.0	 1477.0	 1477.0	 0.0	 0.0	 1	 -30.0	 30.0;
	20	 19	 0.00132	 0.0143	 0.3656	 1590.0	 1590.0	 1590.0	 0.0	 0.0	 1	 -30.0	 30.0;
	21	 16	 0.00145	 0.01824	 0.9169	 1726.0	 1726.0	 1726.0	 0.0	 0.0	 1	 -30.0	 30.0;
	21	 16	 0.00145	 0.01824	 0.9169	 1726.0	 1726.0	 1726.0	 0.0	 0.0	 1	 -30.0	 30.0;
	21	 25	 0.00025	 0.01	 0.1586	 2780.0	 2780.0	 2780.0	 0.0	 0.0	 1	 -30.0	 30.0;
	21	 25	 0.00025	 0.01	 0.1586	 2780.0	 2780.0	 2780.0	 0.0	 0.0	 1	 -30.0	 30.0;
	21	 20	 0.0012	 0.0048	 0.4446	 2780.0	 2780.0	 2780.0	 0.0	 0.0	 1	 -30.0	 30.0;
	21	 20	 0.0012	 0.0048	 0.7	 2780.0	 2780.0	 2780.0	 0.0	 0.0	 1	 -30.0	 30.0;
	21	 19	 0.00037	 0.0059	 0.294	 3030.0	 3030.0	 3030.0	 0.0	 0.0	 1	 -30.0	 30.0;
	21	 19	 0.00037	 0.0059	 0.2955	 2780.0	 2780.0	 2780.0	 0.0	 0.0	 1	 -30.0	 30.0;
	22	 16	 0.00178	 0.0172	 0.8403	 1826.0	 1826.0	 1826.0	 0.0	 0.0	 1	 -30.0	 30.0;
	22	 16	 0.00178	 0.0172	 0.627	 1826.0	 1826.0	 1826.0	 0.0	 0.0	 1	 -30.0	 30.0;
	22	 25	 0.00037	 0.0041	 0.4098	 3275.0	 3275.0	 3275.0	 0.0	 0.0	 1	 -30.0	 30.0;
	22	 25	 0.00034	 0.0041	 0.429	 3275.0	 3275.0	 3275.0	 0.0	 0.0	 1	 -30.0	 30.0;
	22	 21	 0.00019	 0.00111	 0.1232	 2780.0	 2780.0	 2780.0	 0.0	 0.0	 1	 -30.0	 30.0;
	22	 21	 0.00048	 0.0061	 0.3041	 2780.0	 2780.0	 2780.0	 0.0	 0.0	 1	 -30.0	 30.0;
	23	 29	 0.00151	 0.0182	 0.53	 1729.0	 1729.0	 1729.0	 0.0	 0.0	 1	 -30.0	 30.0;
	23	 24	 0.00086	 0.0008	 0.9622	 2780.0	 2780.0	 2780.0	 0.0	 0.0	 1	 -30.0	 30.0;
	23	 24	 0.00023	 0.0007	 2.8447	 4400.0	 4400.0	 4400.0	 0.0	 0.0	 1	 -30.0	 30.0;
	23	 22	 0.00055	 0.003	 0.3468	 2780.0	 2780.0	 2780.0	 0.0	 0.0	 1	 -30.0	 30.0;
	23	 22	 0.00039	 0.003	 0.2466	 2770.0	 2770.0	 2770.0	 0.0	 0.0	 1	 -30.0	 30.0;
	23	 29	 0.00151	 0.0182	 0.53	 1729.0	 1729.0	 1729.0	 0.0	 0.0	 1	 -30.0	 30.0;
	24	 28	 0.00068	 0.007	 0.2388	 2210.0	 2210.0	 2210.0	 0.0	 0.0	 1	 -30.0	 30.0;
	24	 25	 0.00104	 0.0091	 0.2918	 1390.0	 1390.0	 1390.0	 0.0	 0.0	 1	 -30.0	 30.0;
	24	 25	 0.00104	 0.0091	 0.2918	 1390.0	 1390.0	 1390.0	 0.0	 0.0	 1	 -30.0	 30.0;
	24	 28	 0.00068	 0.007	 0.2388	 2210.0	 2210.0	 2210.0	 0.0	 0.0	 1	 -30.0	 30.0;
	25	 26	 0.0002	 0.0057	 0.532	 5538.0	 5538.0	 5538.0	 0.0	 0.0	 1	 -30.0	 30.0;
	25	 26	 0.0002	 0.0057	 0.532	 5538.0	 5538.0	 5538.0	 0.0	 0.0	 1	 -30.0	 30.0;
	27	 26	 0.0002	 0.00503	 0.1797	 3100.0	 3100.0	 3100.0	 0.0	 0.0	 1	 -30.0	 30.0;
	27	 26	 0.0002	 0.00503	 0.1797	 3100.0	 3100.0	 3100.0	 0.0	 0.0	 1	 -30.0	 30.0;
	28	 27	 0.00038	 0.00711	 0.2998	 3070.0	 3070.0	 3070.0	 0.0	 0.0	 1	 -30.0	 30.0;
	28	 27	 0.00038	 0.00711	 0.2998	 3070.0	 3070.0	 3070.0	 0.0	 0.0	 1	 -30.0	 30.0;
	29	 28	 0.00051	 0.00796	 0.34	 2780.0	 2780.0	 2780.0	 0.0	 0.0	 1	 -30.0	 30.0;
	29	 28	 0.00051	 0.00796	 0.34	 2780.0	 2780.0	 2780.0	 0.0	 0.0	 1	 -30.0	 30.0;
	3	 4	 0.003	 0.041	 0.0044	 648.0	 648.0	 648.0	 0.0	 0.0	 1	 -30.0	 30.0;
	3	 4	 0.003	 0.041	 0.044	 648.0	 648.0	 648.0	 0.0	 0.0	 1	 -30.0	 30.0;
	3	 2	 0.03004	 0.077	 0.0124	 382.0	 382.0	 382.0	 0.0	 0.0	 1	 -30.0	 30.0;
];

% INFO    : === Translation Options ===
% INFO    : Load Model:                  from file ./nesta_case29_edin.dat.sol
% INFO    : Gen Active Capacity Model:   stat
% INFO    : Gen Reactive Capacity Model: al50ag
% INFO    : Gen Active Cost Model:       stat
% INFO    : 
% INFO    : === Load Replacement Notes ===
% INFO    : Bus 1	: Pd=468.0, Qd=102.0 -> Pd=2824.46, Qd=102.00
% INFO    : Bus 2	: Pd=513.0, Qd=113.0 -> Pd=3096.05, Qd=113.00
% INFO    : Bus 3	: Pd=555.0, Qd=105.0 -> Pd=3349.53, Qd=105.00
% INFO    : Bus 4	: Pd=1308.0, Qd=317.0 -> Pd=7894.02, Qd=317.00
% INFO    : Bus 5	: Pd=502.0, Qd=128.0 -> Pd=3029.66, Qd=128.00
% INFO    : Bus 6	: Pd=1176.0, Qd=315.0 -> Pd=7097.37, Qd=315.00
% INFO    : Bus 7	: Pd=745.0, Qd=171.0 -> Pd=4496.21, Qd=171.00
% INFO    : Bus 8	: Pd=117.5, Qd=37.4 -> Pd=709.13, Qd=37.40
% INFO    : Bus 9	: Pd=130.0, Qd=53.0 -> Pd=784.57, Qd=53.00
% INFO    : Bus 10	: Pd=2561.0, Qd=465.0 -> Pd=15456.10, Qd=465.00
% INFO    : Bus 11	: Pd=3360.0, Qd=760.0 -> Pd=20278.21, Qd=760.00
% INFO    : Bus 12	: Pd=1189.0, Qd=338.0 -> Pd=7175.83, Qd=338.00
% INFO    : Bus 13	: Pd=2524.0, Qd=766.0 -> Pd=15232.80, Qd=766.00
% INFO    : Bus 14	: Pd=1831.0, Qd=566.5 -> Pd=11050.42, Qd=566.50
% INFO    : Bus 15	: Pd=2633.0, Qd=694.6 -> Pd=15890.63, Qd=694.60
% INFO    : Bus 16	: Pd=1607.0, Qd=655.0 -> Pd=9698.54, Qd=655.00
% INFO    : Bus 17	: Pd=1081.0, Qd=371.0 -> Pd=6524.03, Qd=371.00
% INFO    : Bus 18	: Pd=5362.0, Qd=1935.0 -> Pd=32360.64, Qd=1935.00
% INFO    : Bus 19	: Pd=2019.0, Qd=648.0 -> Pd=12185.03, Qd=648.00
% INFO    : Bus 20	: Pd=1027.36, Qd=305.8 -> Pd=6200.30, Qd=305.80
% INFO    : Bus 21	: Pd=702.0, Qd=202.2 -> Pd=4236.70, Qd=202.20
% INFO    : Bus 22	: Pd=1820.0, Qd=665.0 -> Pd=10984.03, Qd=665.00
% INFO    : Bus 23	: Pd=4734.0, Qd=1337.0 -> Pd=28570.55, Qd=1337.00
% INFO    : Bus 24	: Pd=1418.0, Qd=528.0 -> Pd=8557.89, Qd=528.00
% INFO    : Bus 25	: Pd=9734.0, Qd=2902.0 -> Pd=58746.45, Qd=2902.00
% INFO    : Bus 26	: Pd=1424.0, Qd=434.0 -> Pd=8594.10, Qd=434.00
% INFO    : Bus 27	: Pd=457.0, Qd=138.0 -> Pd=2758.08, Qd=138.00
% INFO    : Bus 28	: Pd=2751.0, Qd=841.0 -> Pd=16602.78, Qd=841.00
% INFO    : Bus 29	: Pd=2577.0, Qd=356.0 -> Pd=15552.66, Qd=356.00
% INFO    : 
% INFO    : === Generator Setpoint Replacement Notes ===
% INFO    : Gen at bus 1	: Pg=493.5, Qg=-24.62 -> Pg=725.0, Qg=14.0
% INFO    : Gen at bus 1	: Pg=549.58, Qg=19.47 -> Pg=725.0, Qg=14.0
% INFO    : Gen at bus 1	: Pg=0.0, Qg=40.0 -> Pg=725.0, Qg=14.0
% INFO    : Gen at bus 1	: Pg=18.72, Qg=-0.6 -> Pg=725.0, Qg=14.0
% INFO    : Gen at bus 2	: Pg=36.43, Qg=-1.67 -> Pg=1039.0, Qg=16.0
% INFO    : Gen at bus 2	: Pg=1524.0, Qg=317.58 -> Pg=1039.0, Qg=16.0
% INFO    : Gen at bus 2	: Pg=12.0, Qg=0.0 -> Pg=1039.0, Qg=16.0
% INFO    : Gen at bus 3	: Pg=387.9, Qg=-14.9 -> Pg=854.0, Qg=24.0
% INFO    : Gen at bus 3	: Pg=13.54, Qg=-3.51 -> Pg=854.0, Qg=24.0
% INFO    : Gen at bus 3	: Pg=553.0, Qg=39.31 -> Pg=854.0, Qg=24.0
% INFO    : Gen at bus 3	: Pg=15.12, Qg=-0.39 -> Pg=854.0, Qg=24.0
% INFO    : Gen at bus 4	: Pg=25.2, Qg=-0.84 -> Pg=1929.0, Qg=41.0
% INFO    : Gen at bus 4	: Pg=2284.0, Qg=-18.77 -> Pg=1929.0, Qg=41.0
% INFO    : Gen at bus 4	: Pg=340.0, Qg=6.24 -> Pg=1929.0, Qg=41.0
% INFO    : Gen at bus 4	: Pg=259.0, Qg=7.16 -> Pg=1929.0, Qg=41.0
% INFO    : Gen at bus 5	: Pg=1074.0, Qg=-6.65 -> Pg=1628.0, Qg=6.0
% INFO    : Gen at bus 5	: Pg=23.2, Qg=2.72 -> Pg=1628.0, Qg=6.0
% INFO    : Gen at bus 6	: Pg=1001.52, Qg=-22.57 -> Pg=2486.0, Qg=-110.0
% INFO    : Gen at bus 6	: Pg=33.0, Qg=-0.35 -> Pg=2486.0, Qg=-110.0
% INFO    : Gen at bus 6	: Pg=49.4, Qg=-2.7 -> Pg=2486.0, Qg=-110.0
% INFO    : Gen at bus 7	: Pg=226.8, Qg=-2.63 -> Pg=1776.0, Qg=-101.0
% INFO    : Gen at bus 7	: Pg=1216.0, Qg=106.13 -> Pg=1776.0, Qg=-101.0
% INFO    : Gen at bus 7	: Pg=1104.0, Qg=7.55 -> Pg=1776.0, Qg=-101.0
% INFO    : Gen at bus 10	: Pg=1208.0, Qg=9.76 -> Pg=5286.0, Qg=-614.0
% INFO    : Gen at bus 10	: Pg=1875.0, Qg=-66.23 -> Pg=5286.0, Qg=-614.0
% INFO    : Gen at bus 10	: Pg=420.0, Qg=14.95 -> Pg=5286.0, Qg=-614.0
% INFO    : Gen at bus 11	: Pg=130.32, Qg=-57.6 -> Pg=3975.0, Qg=448.0
% INFO    : Gen at bus 11	: Pg=2406.0, Qg=104.89 -> Pg=3975.0, Qg=448.0
% INFO    : Gen at bus 11	: Pg=1961.0, Qg=150.88 -> Pg=3975.0, Qg=448.0
% INFO    : Gen at bus 11	: Pg=155.0, Qg=9.51 -> Pg=3975.0, Qg=448.0
% INFO    : Gen at bus 11	: Pg=1039.0, Qg=65.62 -> Pg=3975.0, Qg=448.0
% INFO    : Gen at bus 12	: Pg=980.0, Qg=80.93 -> Pg=5058.0, Qg=414.0
% INFO    : Gen at bus 12	: Pg=1885.0, Qg=53.49 -> Pg=5058.0, Qg=414.0
% INFO    : Gen at bus 12	: Pg=210.0, Qg=10.73 -> Pg=5058.0, Qg=414.0
% INFO    : Gen at bus 12	: Pg=1096.0, Qg=-115.52 -> Pg=5058.0, Qg=414.0
% INFO    : Gen at bus 15	: Pg=7800.0, Qg=503.58 -> Pg=26083.0, Qg=3739.0
% INFO    : Gen at bus 16	: Pg=3972.0, Qg=148.72 -> Pg=3278.0, Qg=1380.0
% INFO    : Gen at bus 16	: Pg=7041.0, Qg=149.33 -> Pg=3278.0, Qg=1380.0
% INFO    : Gen at bus 16	: Pg=1218.0, Qg=102.24 -> Pg=3278.0, Qg=1380.0
% INFO    : Gen at bus 17	: Pg=2000.0, Qg=204.15 -> Pg=7046.0, Qg=-1126.0
% INFO    : Gen at bus 18	: Pg=1960.0, Qg=175.4 -> Pg=17861.0, Qg=3289.0
% INFO    : Gen at bus 18	: Pg=228.0, Qg=-16.78 -> Pg=17861.0, Qg=3289.0
% INFO    : Gen at bus 19	: Pg=2845.0, Qg=-66.18 -> Pg=5845.0, Qg=-227.0
% INFO    : Gen at bus 19	: Pg=406.8, Qg=0.0 -> Pg=5845.0, Qg=-227.0
% INFO    : Gen at bus 20	: Pg=1200.0, Qg=48.88 -> Pg=3366.0, Qg=-241.0
% INFO    : Gen at bus 20	: Pg=360.0, Qg=236.64 -> Pg=3366.0, Qg=-241.0
% INFO    : Gen at bus 21	: Pg=665.0, Qg=10.04 -> Pg=4298.0, Qg=-125.0
% INFO    : Gen at bus 22	: Pg=401.1, Qg=-21.48 -> Pg=10484.0, Qg=-1035.0
% INFO    : Gen at bus 23	: Pg=3772.0, Qg=100.7 -> Pg=6396.0, Qg=76.0
% INFO    : Gen at bus 23	: Pg=363.0, Qg=-34.59 -> Pg=6396.0, Qg=76.0
% INFO    : Gen at bus 23	: Pg=470.0, Qg=53.16 -> Pg=6396.0, Qg=76.0
% INFO    : Gen at bus 23	: Pg=3081.01, Qg=-30.71 -> Pg=6396.0, Qg=76.0
% INFO    : Gen at bus 23	: Pg=0.0, Qg=0.0 -> Pg=6396.0, Qg=76.0
% INFO    : Gen at bus 25	: Pg=2123.0, Qg=0.98 -> Pg=29232.0, Qg=1472.0
% INFO    : Gen at bus 25	: Pg=0.0, Qg=0.0 -> Pg=29232.0, Qg=1472.0
% INFO    : Gen at bus 26	: Pg=1940.0, Qg=225.05 -> Pg=2510.0, Qg=-19.0
% INFO    : Gen at bus 26	: Pg=1104.0, Qg=44.74 -> Pg=2510.0, Qg=-19.0
% INFO    : Gen at bus 26	: Pg=2465.0, Qg=69.94 -> Pg=2510.0, Qg=-19.0
% INFO    : Gen at bus 26	: Pg=0.0, Qg=0.0 -> Pg=2510.0, Qg=-19.0
% INFO    : Gen at bus 27	: Pg=1082.0, Qg=62.12 -> Pg=2162.0, Qg=-146.0
% INFO    : Gen at bus 27	: Pg=216.0, Qg=35.5 -> Pg=2162.0, Qg=-146.0
% INFO    : Gen at bus 28	: Pg=1320.0, Qg=39.06 -> Pg=9456.0, Qg=640.0
% INFO    : Gen at bus 28	: Pg=208.0, Qg=-5.21 -> Pg=9456.0, Qg=640.0
% INFO    : Gen at bus 29	: Pg=1261.0, Qg=-12.56 -> Pg=5247.0, Qg=-47.0
% INFO    : Gen at bus 29	: Pg=905.0, Qg=-4.34 -> Pg=5247.0, Qg=-47.0
% INFO    : Gen at bus 29	: Pg=0.0, Qg=0.0 -> Pg=5247.0, Qg=-47.0
% INFO    : 
% INFO    : === Generator Reactive Capacity Atleast Setpoint Value Notes ===
% INFO    : Gen at bus 1	: Qg 14.0, Qmin -8.99, Qmax 7.8 -> Qmin -16.8, Qmax 16.8
% INFO    : Gen at bus 2	: Qg 16.0, Qmin -17.67, Qmax 14.33 -> Qmin -17.67, Qmax 19.2
% INFO    : Gen at bus 2	: Qg 16.0, Qmin 0.0, Qmax 0.0 -> Qmin -19.2, Qmax 19.2
% INFO    : Gen at bus 3	: Qg 24.0, Qmin -3.51, Qmax -3.51 -> Qmin -28.8, Qmax 28.8
% INFO    : Gen at bus 3	: Qg 24.0, Qmin -7.29, Qmax 6.51 -> Qmin -28.8, Qmax 28.8
% INFO    : Gen at bus 4	: Qg 41.0, Qmin -12.34, Qmax 10.66 -> Qmin -49.2, Qmax 49.2
% INFO    : Gen at bus 6	: Qg -110.0, Qmin -25.5, Qmax 24.8 -> Qmin -132.0, Qmax 132.0
% INFO    : Gen at bus 6	: Qg -110.0, Qmin -17.49, Qmax 12.09 -> Qmin -132.0, Qmax 132.0
% INFO    : Gen at bus 10	: Qg -614.0, Qmin -539.68, Qmax 559.19 -> Qmin -736.8, Qmax 736.8
% INFO    : Gen at bus 10	: Qg -614.0, Qmin -138.04, Qmax 167.95 -> Qmin -736.8, Qmax 736.8
% INFO    : Gen at bus 11	: Qg 448.0, Qmin -57.6, Qmax -57.6 -> Qmin -537.6, Qmax 537.6
% INFO    : Gen at bus 11	: Qg 448.0, Qmin -75.21, Qmax 94.22 -> Qmin -537.6, Qmax 537.6
% INFO    : Gen at bus 12	: Qg 414.0, Qmin -94.97, Qmax 116.42 -> Qmin -496.8, Qmax 496.8
% INFO    : Gen at bus 12	: Qg 414.0, Qmin -575.52, Qmax 344.48 -> Qmin -575.52, Qmax 496.8
% INFO    : Gen at bus 15	: Qg 3739.0, Qmin -2527.87, Qmax 3535.03 -> Qmin -4486.8, Qmax 4486.8
% INFO    : Gen at bus 16	: Qg 1380.0, Qmin -1289.62, Qmax 1587.06 -> Qmin -1656.0, Qmax 1587.06
% INFO    : Gen at bus 16	: Qg 1380.0, Qmin -562.85, Qmax 767.33 -> Qmin -1656.0, Qmax 1656.0
% INFO    : Gen at bus 17	: Qg -1126.0, Qmin -405.94, Qmax 814.23 -> Qmin -1351.2, Qmax 1351.2
% INFO    : Gen at bus 18	: Qg 3289.0, Qmin -534.17, Qmax 884.97 -> Qmin -3946.8, Qmax 3946.8
% INFO    : Gen at bus 18	: Qg 3289.0, Qmin -73.58, Qmax 40.02 -> Qmin -3946.8, Qmax 3946.8
% INFO    : Gen at bus 19	: Qg -227.0, Qmin -162.7, Qmax 162.7 -> Qmin -272.4, Qmax 272.4
% INFO    : Gen at bus 20	: Qg -241.0, Qmin 236.64, Qmax 236.64 -> Qmin -289.2, Qmax 289.2
% INFO    : Gen at bus 22	: Qg -1035.0, Qmin -232.68, Qmax 189.72 -> Qmin -1242.0, Qmax 1242.0
% INFO    : Gen at bus 23	: Qg 76.0, Qmin 0.0, Qmax 0.0 -> Qmin -91.2, Qmax 91.2
% INFO    : Gen at bus 25	: Qg 1472.0, Qmin -947.42, Qmax 949.38 -> Qmin -1766.4, Qmax 1766.4
% INFO    : Gen at bus 25	: Qg 1472.0, Qmin 0.0, Qmax 0.0 -> Qmin -1766.4, Qmax 1766.4
% INFO    : Gen at bus 26	: Qg -19.0, Qmin 0.0, Qmax 0.0 -> Qmin -22.8, Qmax 22.8
% INFO    : Gen at bus 27	: Qg -146.0, Qmin 0.0, Qmax 71.0 -> Qmin -175.2, Qmax 175.2
% INFO    : Gen at bus 28	: Qg 640.0, Qmin -579.7, Qmax 657.82 -> Qmin -768.0, Qmax 657.82
% INFO    : Gen at bus 28	: Qg 640.0, Qmin -71.21, Qmax 60.79 -> Qmin -768.0, Qmax 768.0
% INFO    : Gen at bus 29	: Qg -47.0, Qmin 0.0, Qmax 0.0 -> Qmin -56.4, Qmax 56.4
% INFO    : 
% INFO    : === Generator Classification Notes ===
% INFO    : PEL    3   -     0.99
% INFO    : NUC    5   -     4.25
% INFO    : COW    33  -    57.73
% INFO    : NG     25  -    37.03
% INFO    : 
% INFO    : === Generator Active Capacity Stat Model Notes ===
% WARNING : Failed to find a generator capacity within (725.0-3625.0) after 100 samples, using percent increase model
% INFO    : Gen at bus 1 - NG	: Pg=725.0, Pmax=668.0 -> Pmax=819   samples: 100
% INFO    : Gen at bus 1 - COW	: Pg=725.0, Pmax=554.28 -> Pmax=726   samples: 10
% WARNING : Failed to find a generator capacity within (725.0-3625.0) after 100 samples, using percent increase model
% INFO    : Gen at bus 1 - NG	: Pg=725.0, Pmax=300.0 -> Pmax=819   samples: 100
% WARNING : Failed to find a generator capacity within (725.0-3625.0) after 100 samples, using percent increase model
% INFO    : Gen at bus 1 - PEL	: Pg=725.0, Pmax=18.72 -> Pmax=841   samples: 100
% WARNING : Failed to find a generator capacity within (1039.0-5195.0) after 100 samples, using percent increase model
% INFO    : Gen at bus 2 - NG	: Pg=1039.0, Pmax=50.6 -> Pmax=1173   samples: 100
% INFO    : Gen at bus 2 - NUC	: Pg=1039.0, Pmax=1524.0 -> Pmax=1329   samples: 1
% INFO    : Gen at bus 2 - COW	: Pg=1039.0, Pmax=12.0 -> Pmax=1059   samples: 1
% WARNING : Failed to find a generator capacity within (854.0-4270.0) after 100 samples, using percent increase model
% INFO    : Gen at bus 3 - NG	: Pg=854.0, Pmax=550.99 -> Pmax=964   samples: 100
% WARNING : Failed to find a generator capacity within (854.0-4270.0) after 100 samples, using percent increase model
% INFO    : Gen at bus 3 - PEL	: Pg=854.0, Pmax=19.0 -> Pmax=991   samples: 100
% INFO    : Gen at bus 3 - COW	: Pg=854.0, Pmax=553.12 -> Pmax=1235   samples: 3
% WARNING : Failed to find a generator capacity within (854.0-4270.0) after 100 samples, using percent increase model
% INFO    : Gen at bus 3 - NG	: Pg=854.0, Pmax=15.12 -> Pmax=964   samples: 100
% WARNING : Failed to find a generator capacity within (1929.0-9645.0) after 100 samples, using percent increase model
% INFO    : Gen at bus 4 - NG	: Pg=1929.0, Pmax=35.0 -> Pmax=2179   samples: 100
% WARNING : Failed to find a generator capacity within (1929.0-9645.0) after 100 samples, using percent increase model
% INFO    : Gen at bus 4 - NUC	: Pg=1929.0, Pmax=2284.0 -> Pmax=2040   samples: 100
% WARNING : Failed to find a generator capacity within (1929.0-9645.0) after 100 samples, using percent increase model
% INFO    : Gen at bus 4 - NG	: Pg=1929.0, Pmax=440.0 -> Pmax=2179   samples: 100
% WARNING : Failed to find a generator capacity within (1929.0-9645.0) after 100 samples, using percent increase model
% INFO    : Gen at bus 4 - NG	: Pg=1929.0, Pmax=259.0 -> Pmax=2179   samples: 100
% WARNING : Failed to find a generator capacity within (1628.0-8140.0) after 100 samples, using percent increase model
% INFO    : Gen at bus 5 - NG	: Pg=1628.0, Pmax=1074.0 -> Pmax=1839   samples: 100
% WARNING : Failed to find a generator capacity within (1628.0-8140.0) after 100 samples, using percent increase model
% INFO    : Gen at bus 5 - NG	: Pg=1628.0, Pmax=23.2 -> Pmax=1839   samples: 100
% WARNING : Failed to find a generator capacity within (2486.0-12430.0) after 100 samples, using percent increase model
% INFO    : Gen at bus 6 - NUC	: Pg=2486.0, Pmax=1390.92 -> Pmax=2630   samples: 100
% WARNING : Failed to find a generator capacity within (2486.0-12430.0) after 100 samples, using percent increase model
% INFO    : Gen at bus 6 - COW	: Pg=2486.0, Pmax=33.0 -> Pmax=2696   samples: 100
% WARNING : Failed to find a generator capacity within (2486.0-12430.0) after 100 samples, using percent increase model
% INFO    : Gen at bus 6 - NG	: Pg=2486.0, Pmax=49.4 -> Pmax=2808   samples: 100
% WARNING : Failed to find a generator capacity within (1776.0-8880.0) after 100 samples, using percent increase model
% INFO    : Gen at bus 7 - NG	: Pg=1776.0, Pmax=314.25 -> Pmax=2006   samples: 100
% WARNING : Failed to find a generator capacity within (1776.0-8880.0) after 100 samples, using percent increase model
% INFO    : Gen at bus 7 - COW	: Pg=1776.0, Pmax=1215.0 -> Pmax=1926   samples: 100
% WARNING : Failed to find a generator capacity within (1776.0-8880.0) after 100 samples, using percent increase model
% INFO    : Gen at bus 7 - PEL	: Pg=1776.0, Pmax=1102.0 -> Pmax=2062   samples: 100
% WARNING : Failed to find a generator capacity within (5286.0-26430.0) after 100 samples, using percent increase model
% INFO    : Gen at bus 10 - COW	: Pg=5286.0, Pmax=1207.0 -> Pmax=5734   samples: 100
% WARNING : Failed to find a generator capacity within (5286.0-26430.0) after 100 samples, using percent increase model
% INFO    : Gen at bus 10 - NG	: Pg=5286.0, Pmax=1875.0 -> Pmax=5971   samples: 100
% WARNING : Failed to find a generator capacity within (5286.0-26430.0) after 100 samples, using percent increase model
% INFO    : Gen at bus 10 - COW	: Pg=5286.0, Pmax=420.0 -> Pmax=5734   samples: 100
% WARNING : Failed to find a generator capacity within (3975.0-19875.0) after 100 samples, using percent increase model
% INFO    : Gen at bus 11 - NG	: Pg=3975.0, Pmax=180.0 -> Pmax=4490   samples: 100
% WARNING : Failed to find a generator capacity within (3975.0-19875.0) after 100 samples, using percent increase model
% INFO    : Gen at bus 11 - COW	: Pg=3975.0, Pmax=2406.0 -> Pmax=4312   samples: 100
% WARNING : Failed to find a generator capacity within (3975.0-19875.0) after 100 samples, using percent increase model
% INFO    : Gen at bus 11 - NUC	: Pg=3975.0, Pmax=1987.0 -> Pmax=4205   samples: 100
% WARNING : Failed to find a generator capacity within (3975.0-19875.0) after 100 samples, using percent increase model
% INFO    : Gen at bus 11 - COW	: Pg=3975.0, Pmax=155.0 -> Pmax=4312   samples: 100
% WARNING : Failed to find a generator capacity within (3975.0-19875.0) after 100 samples, using percent increase model
% INFO    : Gen at bus 11 - COW	: Pg=3975.0, Pmax=1039.0 -> Pmax=4312   samples: 100
% WARNING : Failed to find a generator capacity within (5058.0-25290.0) after 100 samples, using percent increase model
% INFO    : Gen at bus 12 - COW	: Pg=5058.0, Pmax=980.0 -> Pmax=5486   samples: 100
% WARNING : Failed to find a generator capacity within (5058.0-25290.0) after 100 samples, using percent increase model
% INFO    : Gen at bus 12 - NUC	: Pg=5058.0, Pmax=1885.0 -> Pmax=5351   samples: 100
% WARNING : Failed to find a generator capacity within (5058.0-25290.0) after 100 samples, using percent increase model
% INFO    : Gen at bus 12 - NG	: Pg=5058.0, Pmax=210.0 -> Pmax=5714   samples: 100
% WARNING : Failed to find a generator capacity within (5058.0-25290.0) after 100 samples, using percent increase model
% INFO    : Gen at bus 12 - COW	: Pg=5058.0, Pmax=2004.0 -> Pmax=5486   samples: 100
% WARNING : Failed to find a generator capacity within (26083.0-130415.0) after 100 samples, using percent increase model
% INFO    : Gen at bus 15 - COW	: Pg=26083.0, Pmax=7832.0 -> Pmax=28294   samples: 100
% WARNING : Failed to find a generator capacity within (3278.0-16390.0) after 100 samples, using percent increase model
% INFO    : Gen at bus 16 - COW	: Pg=3278.0, Pmax=3987.0 -> Pmax=3555   samples: 100
% WARNING : Failed to find a generator capacity within (3278.0-16390.0) after 100 samples, using percent increase model
% INFO    : Gen at bus 16 - COW	: Pg=3278.0, Pmax=7040.0 -> Pmax=3555   samples: 100
% WARNING : Failed to find a generator capacity within (3278.0-16390.0) after 100 samples, using percent increase model
% INFO    : Gen at bus 16 - COW	: Pg=3278.0, Pmax=1218.0 -> Pmax=3555   samples: 100
% WARNING : Failed to find a generator capacity within (7046.0-35230.0) after 100 samples, using percent increase model
% INFO    : Gen at bus 17 - COW	: Pg=7046.0, Pmax=2021.0 -> Pmax=7643   samples: 100
% WARNING : Failed to find a generator capacity within (17861.0-89305.0) after 100 samples, using percent increase model
% INFO    : Gen at bus 18 - COW	: Pg=17861.0, Pmax=1982.0 -> Pmax=19375   samples: 100
% WARNING : Failed to find a generator capacity within (17861.0-89305.0) after 100 samples, using percent increase model
% INFO    : Gen at bus 18 - NG	: Pg=17861.0, Pmax=228.0 -> Pmax=20177   samples: 100
% WARNING : Failed to find a generator capacity within (5845.0-29225.0) after 100 samples, using percent increase model
% INFO    : Gen at bus 19 - COW	: Pg=5845.0, Pmax=2845.0 -> Pmax=6340   samples: 100
% WARNING : Failed to find a generator capacity within (5845.0-29225.0) after 100 samples, using percent increase model
% INFO    : Gen at bus 19 - COW	: Pg=5845.0, Pmax=406.8 -> Pmax=6340   samples: 100
% WARNING : Failed to find a generator capacity within (3366.0-16830.0) after 100 samples, using percent increase model
% INFO    : Gen at bus 20 - NG	: Pg=3366.0, Pmax=1200.0 -> Pmax=3802   samples: 100
% WARNING : Failed to find a generator capacity within (3366.0-16830.0) after 100 samples, using percent increase model
% INFO    : Gen at bus 20 - COW	: Pg=3366.0, Pmax=360.0 -> Pmax=3651   samples: 100
% WARNING : Failed to find a generator capacity within (4298.0-21490.0) after 100 samples, using percent increase model
% INFO    : Gen at bus 21 - COW	: Pg=4298.0, Pmax=665.0 -> Pmax=4662   samples: 100
% WARNING : Failed to find a generator capacity within (10484.0-52420.0) after 100 samples, using percent increase model
% INFO    : Gen at bus 22 - NG	: Pg=10484.0, Pmax=401.0 -> Pmax=11843   samples: 100
% WARNING : Failed to find a generator capacity within (6396.0-31980.0) after 100 samples, using percent increase model
% INFO    : Gen at bus 23 - COW	: Pg=6396.0, Pmax=3801.0 -> Pmax=6938   samples: 100
% WARNING : Failed to find a generator capacity within (6396.0-31980.0) after 100 samples, using percent increase model
% INFO    : Gen at bus 23 - NG	: Pg=6396.0, Pmax=363.0 -> Pmax=7225   samples: 100
% WARNING : Failed to find a generator capacity within (6396.0-31980.0) after 100 samples, using percent increase model
% INFO    : Gen at bus 23 - NG	: Pg=6396.0, Pmax=470.4 -> Pmax=7225   samples: 100
% WARNING : Failed to find a generator capacity within (6396.0-31980.0) after 100 samples, using percent increase model
% INFO    : Gen at bus 23 - COW	: Pg=6396.0, Pmax=4431.0 -> Pmax=6938   samples: 100
% WARNING : Failed to find a generator capacity within (6396.0-31980.0) after 100 samples, using percent increase model
% INFO    : Gen at bus 23 - NG	: Pg=6396.0, Pmax=100.0 -> Pmax=7225   samples: 100
% WARNING : Failed to find a generator capacity within (29232.0-146160.0) after 100 samples, using percent increase model
% INFO    : Gen at bus 25 - COW	: Pg=29232.0, Pmax=2123.0 -> Pmax=31710   samples: 100
% WARNING : Failed to find a generator capacity within (29232.0-146160.0) after 100 samples, using percent increase model
% INFO    : Gen at bus 25 - NG	: Pg=29232.0, Pmax=1245.0 -> Pmax=33023   samples: 100
% WARNING : Failed to find a generator capacity within (2510.0-12550.0) after 100 samples, using percent increase model
% INFO    : Gen at bus 26 - NG	: Pg=2510.0, Pmax=1966.0 -> Pmax=2835   samples: 100
% WARNING : Failed to find a generator capacity within (2510.0-12550.0) after 100 samples, using percent increase model
% INFO    : Gen at bus 26 - COW	: Pg=2510.0, Pmax=1131.0 -> Pmax=2722   samples: 100
% INFO    : Gen at bus 26 - COW	: Pg=2510.0, Pmax=3165.0 -> Pmax=3148   samples: 4
% WARNING : Failed to find a generator capacity within (2510.0-12550.0) after 100 samples, using percent increase model
% INFO    : Gen at bus 26 - COW	: Pg=2510.0, Pmax=1355.0 -> Pmax=2722   samples: 100
% WARNING : Failed to find a generator capacity within (2162.0-10810.0) after 100 samples, using percent increase model
% INFO    : Gen at bus 27 - COW	: Pg=2162.0, Pmax=1081.0 -> Pmax=2345   samples: 100
% WARNING : Failed to find a generator capacity within (2162.0-10810.0) after 100 samples, using percent increase model
% INFO    : Gen at bus 27 - NG	: Pg=2162.0, Pmax=300.0 -> Pmax=2442   samples: 100
% WARNING : Failed to find a generator capacity within (9456.0-47280.0) after 100 samples, using percent increase model
% INFO    : Gen at bus 28 - COW	: Pg=9456.0, Pmax=1320.0 -> Pmax=10257   samples: 100
% WARNING : Failed to find a generator capacity within (9456.0-47280.0) after 100 samples, using percent increase model
% INFO    : Gen at bus 28 - NG	: Pg=9456.0, Pmax=208.0 -> Pmax=10682   samples: 100
% WARNING : Failed to find a generator capacity within (5247.0-26235.0) after 100 samples, using percent increase model
% INFO    : Gen at bus 29 - COW	: Pg=5247.0, Pmax=1261.0 -> Pmax=5691   samples: 100
% WARNING : Failed to find a generator capacity within (5247.0-26235.0) after 100 samples, using percent increase model
% INFO    : Gen at bus 29 - COW	: Pg=5247.0, Pmax=905.0 -> Pmax=5691   samples: 100
% WARNING : Failed to find a generator capacity within (5247.0-26235.0) after 100 samples, using percent increase model
% INFO    : Gen at bus 29 - COW	: Pg=5247.0, Pmax=140.0 -> Pmax=5691   samples: 100
% INFO    : 
% INFO    : === Generator Active Capacity LB Model Notes ===
% INFO    : 
% INFO    : === Generator Reactive Capacity Atleast Max 50 Percent Active Model Notes ===
% INFO    : Gen at bus 1 - NG	: Pmax 819.0, Qmin -188.46, Qmax 139.22 -> Qmin -410.0, Qmax 410.0
% INFO    : Gen at bus 1 - COW	: Pmax 726.0, Qmin -66.3, Qmax 105.23 -> Qmin -363.0, Qmax 363.0
% INFO    : Gen at bus 1 - NG	: Pmax 819.0, Qmin -100.0, Qmax 180.0 -> Qmin -410.0, Qmax 410.0
% INFO    : Gen at bus 1 - PEL	: Pmax 841.0, Qmin -16.8, Qmax 16.8 -> Qmin -421.0, Qmax 421.0
% INFO    : Gen at bus 2 - NG	: Pmax 1173.0, Qmin -17.67, Qmax 19.2 -> Qmin -587.0, Qmax 587.0
% INFO    : Gen at bus 2 - NUC	: Pmax 1329.0, Qmin -473.36, Qmax 1108.51 -> Qmin -665.0, Qmax 1108.51
% INFO    : Gen at bus 2 - COW	: Pmax 1059.0, Qmin -19.2, Qmax 19.2 -> Qmin -530.0, Qmax 530.0
% INFO    : Gen at bus 3 - NG	: Pmax 964.0, Qmin -158.14, Qmax 128.34 -> Qmin -482.0, Qmax 482.0
% INFO    : Gen at bus 3 - PEL	: Pmax 991.0, Qmin -28.8, Qmax 28.8 -> Qmin -496.0, Qmax 496.0
% INFO    : Gen at bus 3 - COW	: Pmax 1235.0, Qmin -66.17, Qmax 144.79 -> Qmin -618.0, Qmax 618.0
% INFO    : Gen at bus 3 - NG	: Pmax 964.0, Qmin -28.8, Qmax 28.8 -> Qmin -482.0, Qmax 482.0
% INFO    : Gen at bus 4 - NG	: Pmax 2179.0, Qmin -49.2, Qmax 49.2 -> Qmin -1090.0, Qmax 1090.0
% INFO    : Gen at bus 4 - NUC	: Pmax 2040.0, Qmin -679.0, Qmax 641.47 -> Qmin -1020.0, Qmax 1020.0
% INFO    : Gen at bus 4 - NG	: Pmax 2179.0, Qmin -137.86, Qmax 150.34 -> Qmin -1090.0, Qmax 1090.0
% INFO    : Gen at bus 4 - NG	: Pmax 2179.0, Qmin -122.95, Qmax 137.27 -> Qmin -1090.0, Qmax 1090.0
% INFO    : Gen at bus 5 - NG	: Pmax 1839.0, Qmin -429.77, Qmax 416.47 -> Qmin -920.0, Qmax 920.0
% INFO    : Gen at bus 5 - NG	: Pmax 1839.0, Qmin -9.94, Qmax 15.39 -> Qmin -920.0, Qmax 920.0
% INFO    : Gen at bus 6 - NUC	: Pmax 2630.0, Qmin -484.8, Qmax 439.66 -> Qmin -1315.0, Qmax 1315.0
% INFO    : Gen at bus 6 - COW	: Pmax 2696.0, Qmin -132.0, Qmax 132.0 -> Qmin -1348.0, Qmax 1348.0
% INFO    : Gen at bus 6 - NG	: Pmax 2808.0, Qmin -132.0, Qmax 132.0 -> Qmin -1404.0, Qmax 1404.0
% INFO    : Gen at bus 7 - NG	: Pmax 2006.0, Qmin -131.02, Qmax 125.76 -> Qmin -1003.0, Qmax 1003.0
% INFO    : Gen at bus 7 - COW	: Pmax 1926.0, Qmin -469.07, Qmax 681.34 -> Qmin -963.0, Qmax 963.0
% INFO    : Gen at bus 7 - PEL	: Pmax 2062.0, Qmin -205.24, Qmax 220.34 -> Qmin -1031.0, Qmax 1031.0
% INFO    : Gen at bus 10 - COW	: Pmax 5734.0, Qmin -736.8, Qmax 736.8 -> Qmin -2867.0, Qmax 2867.0
% INFO    : Gen at bus 10 - NG	: Pmax 5971.0, Qmin -829.63, Qmax 697.17 -> Qmin -2986.0, Qmax 2986.0
% INFO    : Gen at bus 10 - COW	: Pmax 5734.0, Qmin -736.8, Qmax 736.8 -> Qmin -2867.0, Qmax 2867.0
% INFO    : Gen at bus 11 - NG	: Pmax 4490.0, Qmin -537.6, Qmax 537.6 -> Qmin -2245.0, Qmax 2245.0
% INFO    : Gen at bus 11 - COW	: Pmax 4312.0, Qmin -1006.32, Qmax 1216.1 -> Qmin -2156.0, Qmax 2156.0
% INFO    : Gen at bus 11 - NUC	: Pmax 4205.0, Qmin -571.46, Qmax 873.22 -> Qmin -2103.0, Qmax 2103.0
% INFO    : Gen at bus 11 - COW	: Pmax 4312.0, Qmin -537.6, Qmax 537.6 -> Qmin -2156.0, Qmax 2156.0
% INFO    : Gen at bus 11 - COW	: Pmax 4312.0, Qmin -539.07, Qmax 670.32 -> Qmin -2156.0, Qmax 2156.0
% INFO    : Gen at bus 12 - COW	: Pmax 5486.0, Qmin -418.12, Qmax 579.98 -> Qmin -2743.0, Qmax 2743.0
% INFO    : Gen at bus 12 - NUC	: Pmax 5351.0, Qmin -853.06, Qmax 960.05 -> Qmin -2676.0, Qmax 2676.0
% INFO    : Gen at bus 12 - NG	: Pmax 5714.0, Qmin -496.8, Qmax 496.8 -> Qmin -2857.0, Qmax 2857.0
% INFO    : Gen at bus 12 - COW	: Pmax 5486.0, Qmin -575.52, Qmax 496.8 -> Qmin -2743.0, Qmax 2743.0
% INFO    : Gen at bus 15 - COW	: Pmax 28294.0, Qmin -4486.8, Qmax 4486.8 -> Qmin -14147.0, Qmax 14147.0
% INFO    : Gen at bus 16 - COW	: Pmax 3555.0, Qmin -1656.0, Qmax 1587.06 -> Qmin -1778.0, Qmax 1778.0
% INFO    : Gen at bus 16 - COW	: Pmax 3555.0, Qmin -1656.0, Qmax 1656.0 -> Qmin -1778.0, Qmax 1778.0
% INFO    : Gen at bus 17 - COW	: Pmax 7643.0, Qmin -1351.2, Qmax 1351.2 -> Qmin -3822.0, Qmax 3822.0
% INFO    : Gen at bus 18 - COW	: Pmax 19375.0, Qmin -3946.8, Qmax 3946.8 -> Qmin -9688.0, Qmax 9688.0
% INFO    : Gen at bus 18 - NG	: Pmax 20177.0, Qmin -3946.8, Qmax 3946.8 -> Qmin -10089.0, Qmax 10089.0
% INFO    : Gen at bus 19 - COW	: Pmax 6340.0, Qmin -1468.98, Qmax 1336.63 -> Qmin -3170.0, Qmax 3170.0
% INFO    : Gen at bus 19 - COW	: Pmax 6340.0, Qmin -272.4, Qmax 272.4 -> Qmin -3170.0, Qmax 3170.0
% INFO    : Gen at bus 20 - NG	: Pmax 3802.0, Qmin -523.38, Qmax 621.14 -> Qmin -1901.0, Qmax 1901.0
% INFO    : Gen at bus 20 - COW	: Pmax 3651.0, Qmin -289.2, Qmax 289.2 -> Qmin -1826.0, Qmax 1826.0
% INFO    : Gen at bus 21 - COW	: Pmax 4662.0, Qmin -306.07, Qmax 326.15 -> Qmin -2331.0, Qmax 2331.0
% INFO    : Gen at bus 22 - NG	: Pmax 11843.0, Qmin -1242.0, Qmax 1242.0 -> Qmin -5922.0, Qmax 5922.0
% INFO    : Gen at bus 23 - COW	: Pmax 6938.0, Qmin -1388.27, Qmax 1589.67 -> Qmin -3469.0, Qmax 3469.0
% INFO    : Gen at bus 23 - NG	: Pmax 7225.0, Qmin -153.99, Qmax 84.81 -> Qmin -3613.0, Qmax 3613.0
% INFO    : Gen at bus 23 - NG	: Pmax 7225.0, Qmin -211.43, Qmax 317.76 -> Qmin -3613.0, Qmax 3613.0
% INFO    : Gen at bus 23 - COW	: Pmax 6938.0, Qmin -1262.24, Qmax 1200.81 -> Qmin -3469.0, Qmax 3469.0
% INFO    : Gen at bus 23 - NG	: Pmax 7225.0, Qmin -91.2, Qmax 91.2 -> Qmin -3613.0, Qmax 3613.0
% INFO    : Gen at bus 25 - COW	: Pmax 31710.0, Qmin -1766.4, Qmax 1766.4 -> Qmin -15855.0, Qmax 15855.0
% INFO    : Gen at bus 25 - NG	: Pmax 33023.0, Qmin -1766.4, Qmax 1766.4 -> Qmin -16512.0, Qmax 16512.0
% INFO    : Gen at bus 26 - NG	: Pmax 2835.0, Qmin -431.35, Qmax 881.44 -> Qmin -1418.0, Qmax 1418.0
% INFO    : Gen at bus 26 - COW	: Pmax 2722.0, Qmin -294.62, Qmax 384.11 -> Qmin -1361.0, Qmax 1361.0
% INFO    : Gen at bus 26 - COW	: Pmax 3148.0, Qmin -1114.64, Qmax 1254.53 -> Qmin -1574.0, Qmax 1574.0
% INFO    : Gen at bus 26 - COW	: Pmax 2722.0, Qmin -22.8, Qmax 22.8 -> Qmin -1361.0, Qmax 1361.0
% INFO    : Gen at bus 27 - COW	: Pmax 2345.0, Qmin -541.79, Qmax 666.03 -> Qmin -1173.0, Qmax 1173.0
% INFO    : Gen at bus 27 - NG	: Pmax 2442.0, Qmin -175.2, Qmax 175.2 -> Qmin -1221.0, Qmax 1221.0
% INFO    : Gen at bus 28 - COW	: Pmax 10257.0, Qmin -768.0, Qmax 657.82 -> Qmin -5129.0, Qmax 5129.0
% INFO    : Gen at bus 28 - NG	: Pmax 10682.0, Qmin -768.0, Qmax 768.0 -> Qmin -5341.0, Qmax 5341.0
% INFO    : Gen at bus 29 - COW	: Pmax 5691.0, Qmin -480.43, Qmax 455.32 -> Qmin -2846.0, Qmax 2846.0
% INFO    : Gen at bus 29 - COW	: Pmax 5691.0, Qmin -412.03, Qmax 403.35 -> Qmin -2846.0, Qmax 2846.0
% INFO    : Gen at bus 29 - COW	: Pmax 5691.0, Qmin -56.4, Qmax 56.4 -> Qmin -2846.0, Qmax 2846.0
% INFO    : 
% INFO    : === Generator Active Cost Stat Model Notes ===
% INFO    : Updated Generator Cost: NG - 0.0 0.816753 0.0 -> 0 0.790117913501 0
% INFO    : Updated Generator Cost: COW - 0.0 1.075915 0.0 -> 0 0.729222084057 0
% INFO    : Updated Generator Cost: NG - 0.0 0.848101 0.0 -> 0 0.908776411331 0
% INFO    : Updated Generator Cost: PEL - 0.0 6.890404 0.0 -> 0 7.5597668768 0
% INFO    : Updated Generator Cost: NG - 0.0 1.123794 0.0 -> 0 0.819741158274 0
% INFO    : Updated Generator Cost: NUC - 0.0 0.272726 0.0 -> 0 0.197329953793 0
% INFO    : Updated Generator Cost: COW - 0.0 1.154216 0.0 -> 0 0.808933907309 0
% INFO    : Updated Generator Cost: NG - 0.0 0.860523 0.0 -> 0 1.34495549408 0
% INFO    : Updated Generator Cost: PEL - 0.0 0.82838 0.0 -> 0 6.77896526139 0
% INFO    : Updated Generator Cost: COW - 0.0 0.833091 0.0 -> 0 0.507238631852 0
% INFO    : Updated Generator Cost: NG - 0.0 0.834253 0.0 -> 0 1.27122310935 0
% INFO    : Updated Generator Cost: NG - 0.0 6.851702 0.0 -> 0 1.13667068025 0
% INFO    : Updated Generator Cost: NUC - 0.0 0.273494 0.0 -> 0 0.190607969152 0
% INFO    : Updated Generator Cost: NG - 0.0 0.976266 0.0 -> 0 1.16868999248 0
% INFO    : Updated Generator Cost: NG - 0.0 0.474393 0.0 -> 0 1.0776680694 0
% INFO    : Updated Generator Cost: NG - 0.0 1.242228 0.0 -> 0 0.73924289853 0
% INFO    : Updated Generator Cost: NG - 0.0 7.220847 0.0 -> 0 0.872250024763 0
% INFO    : Updated Generator Cost: NUC - 0.0 1.130158 0.0 -> 0 0.236057599469 0
% INFO    : Updated Generator Cost: COW - 0.0 1.34824 0.0 -> 0 0.82344461354 0
% INFO    : Updated Generator Cost: NG - 0.0 1.43219 0.0 -> 0 1.37784916067 0
% INFO    : Updated Generator Cost: NG - 0.0 1.098766 0.0 -> 0 0.994483186426 0
% INFO    : Updated Generator Cost: COW - 0.0 0.238951 0.0 -> 0 1.03894372884 0
% INFO    : Updated Generator Cost: PEL - 0.0 0.589471 0.0 -> 0 7.15936619754 0
% INFO    : Updated Generator Cost: COW - 0.0 0.225459 0.0 -> 0 1.10168632526 0
% INFO    : Updated Generator Cost: NG - 0.0 0.905478 0.0 -> 0 1.06809882955 0
% INFO    : Updated Generator Cost: COW - 0.0 1.021435 0.0 -> 0 1.45349124656 0
% INFO    : Updated Generator Cost: NG - 0.0 1.179066 0.0 -> 0 1.29449077367 0
% INFO    : Updated Generator Cost: COW - 0.0 0.737942 0.0 -> 0 1.08683588072 0
% INFO    : Updated Generator Cost: NUC - 0.0 1.188357 0.0 -> 0 0.164633943709 0
% INFO    : Updated Generator Cost: COW - 0.0 1.11809 0.0 -> 0 0.939700871266 0
% INFO    : Updated Generator Cost: COW - 0.0 0.685077 0.0 -> 0 0.749409806885 0
% INFO    : Updated Generator Cost: COW - 0.0 0.217202 0.0 -> 0 0.996642511165 0
% INFO    : Updated Generator Cost: NUC - 0.0 0.550879 0.0 -> 0 0.199950325555 0
% INFO    : Updated Generator Cost: NG - 0.0 0.881717 0.0 -> 0 0.920202221258 0
% INFO    : Updated Generator Cost: COW - 0.0 0.326811 0.0 -> 0 1.0376659935 0
% INFO    : Updated Generator Cost: COW - 0.0 1.294938 0.0 -> 0 0.714557472794 0
% INFO    : Updated Generator Cost: COW - 0.0 0.214075 0.0 -> 0 0.57920260531 0
% INFO    : Updated Generator Cost: COW - 0.0 0.67437 0.0 -> 0 1.18409677903 0
% INFO    : Updated Generator Cost: COW - 0.0 0.843337 0.0 -> 0 0.380434725076 0
% INFO    : Updated Generator Cost: COW - 0.0 0.780507 0.0 -> 0 1.31938135322 0
% INFO    : Updated Generator Cost: COW - 0.0 0.8963 0.0 -> 0 1.24804247891 0
% INFO    : Updated Generator Cost: NG - 0.0 1.192504 0.0 -> 0 1.18312474959 0
% INFO    : Updated Generator Cost: COW - 0.0 0.197892 0.0 -> 0 0.935899128121 0
% INFO    : Updated Generator Cost: COW - 0.0 0.917884 0.0 -> 0 0.830398047774 0
% INFO    : Updated Generator Cost: NG - 0.0 0.693054 0.0 -> 0 1.10882002113 0
% INFO    : Updated Generator Cost: COW - 0.0 0.972377 0.0 -> 0 0.255347409147 0
% INFO    : Updated Generator Cost: COW - 0.0 0.703284 0.0 -> 0 0.8379519163 0
% INFO    : Updated Generator Cost: NG - 0.0 0.784566 0.0 -> 0 1.21036234904 0
% INFO    : Updated Generator Cost: COW - 0.0 0.20201 0.0 -> 0 0.524755776482 0
% INFO    : Updated Generator Cost: NG - 0.0 0.547247 0.0 -> 0 0.76414619391 0
% INFO    : Updated Generator Cost: NG - 0.0 1.170062 0.0 -> 0 0.712972522852 0
% INFO    : Updated Generator Cost: COW - 0.0 0.646308 0.0 -> 0 0.51141814862 0
% INFO    : Updated Generator Cost: NG - 0.0 0.0 0.0 -> 0 0.914718995647 0
% INFO    : Updated Generator Cost: COW - 0.0 0.603325 0.0 -> 0 0.66325354215 0
% INFO    : Updated Generator Cost: NG - 0.0 0.941578 0.0 -> 0 1.0513982537 0
% INFO    : Updated Generator Cost: NG - 0.0 0.701512 0.0 -> 0 1.13402333626 0
% INFO    : Updated Generator Cost: COW - 0.0 1.117037 0.0 -> 0 1.27391479989 0
% INFO    : Updated Generator Cost: COW - 0.0 0.777734 0.0 -> 0 0.83399238489 0
% INFO    : Updated Generator Cost: COW - 0.0 0.793837 0.0 -> 0 0.538577490978 0
% INFO    : Updated Generator Cost: COW - 0.0 0.494775 0.0 -> 0 0.858706150979 0
% INFO    : Updated Generator Cost: NG - 0.0 1.261632 0.0 -> 0 1.10124229711 0
% INFO    : Updated Generator Cost: COW - 0.0 1.307594 0.0 -> 0 0.573781155991 0
% INFO    : Updated Generator Cost: NG - 0.0 1.062217 0.0 -> 0 1.30252279221 0
% INFO    : Updated Generator Cost: COW - 0.0 6.429936 0.0 -> 0 0.468285560955 0
% INFO    : Updated Generator Cost: COW - 0.0 0.545667 0.0 -> 0 1.1522711889 0
% INFO    : Updated Generator Cost: COW - 0.0 0.943798 0.0 -> 0 0.95416679018 0
% INFO    : 
% INFO    : === Writing Matpower Case File Notes ===
